@<TRIPOS>MOLECULE
HO2
    3     2     1     0     0
SMALL
bcc


@<TRIPOS>ATOM
      1 O            9.3590    -3.8620     0.4880 oh       301 HO2      -0.785000
      2 H6          10.2210    -3.5400     0.7510 ho       301 HO2       0.392000
      3 H7           8.9200    -3.0970     0.1170 ho       301 HO2       0.392000
@<TRIPOS>BOND
     1     1     2 1   
     2     1     3 1   
@<TRIPOS>SUBSTRUCTURE
     1 HO2         1 TEMP              0 ****  ****    0 ROOT
