@<TRIPOS>MOLECULE
STO
   27    29     1     0     0
SMALL
bcc


@<TRIPOS>ATOM
      1 C1           8.9500    -8.0910     0.0670 ca       300 STO      -0.108000
      2 C2           8.8720    -9.3510     0.6190 ca       300 STO      -0.132000
      3 C3           7.9130   -10.2910     0.2030 ca       300 STO      -0.123000
      4 C4           7.0710    -9.9960    -0.8820 ca       300 STO      -0.132000
      5 C5           7.1410    -8.7540    -1.4590 ca       300 STO      -0.108000
      6 C10         10.9460    -7.5220    -2.3950 ca       300 STO      -0.108000
      7 C11         12.2600    -8.0140    -2.2110 ca       300 STO      -0.132000
      8 C12         13.2620    -7.3030    -1.6010 ca       300 STO      -0.123000
      9 C13         12.9040    -6.0360    -1.1050 ca       300 STO      -0.132000
     10 C14         11.6230    -5.4880    -1.2820 ca       300 STO      -0.108000
     11 C96          8.0770    -7.8380    -0.9870 ca       300 STO      -0.084300
     12 C97         10.6270    -6.2360    -1.9120 ca       300 STO      -0.084300
     13 C98          8.0290    -6.4490    -1.5860 cx       300 STO       0.119400
     14 C99          9.2250    -5.6750    -2.0720 cx       300 STO       0.119400
     15 O99          8.3010    -6.3810    -2.9920 op       300 STO      -0.398600
     16 H1           9.2600    -7.2690     0.6950 ha       300 STO       0.139000
     17 H2           9.3300    -9.5040     1.5850 ha       300 STO       0.132500
     18 H3           8.0090   -11.3170     0.5270 ha       300 STO       0.132000
     19 H4           6.1610   -10.5660    -0.9980 ha       300 STO       0.132500
     20 H5           6.2510    -8.3610    -1.9270 ha       300 STO       0.139000
     21 H10         10.1470    -8.2410    -2.5000 ha       300 STO       0.139000
     22 H11         12.4850    -9.0090    -2.5650 ha       300 STO       0.132500
     23 H12         14.2770    -7.4540    -1.9370 ha       300 STO       0.132000
     24 H13         13.4940    -5.6540    -0.2850 ha       300 STO       0.132500
     25 H14         11.5480    -4.4120    -1.3350 ha       300 STO       0.139000
     26 H98          7.1460    -5.9020    -1.2630 h1       300 STO       0.092700
     27 H99          9.1900    -4.5880    -2.1110 h1       300 STO       0.092700
@<TRIPOS>BOND
     1     1     2 ar  
     2     1    11 ar  
     3     1    16 1   
     4     2     3 ar  
     5     2    17 1   
     6     3     4 ar  
     7     3    18 1   
     8     4     5 ar  
     9     4    19 1   
    10     5    11 ar  
    11     5    20 1   
    12     6     7 ar  
    13     6    12 ar  
    14     6    21 1   
    15     7     8 ar  
    16     7    22 1   
    17     8     9 ar  
    18     8    23 1   
    19     9    10 ar  
    20     9    24 1   
    21    10    12 ar  
    22    10    25 1   
    23    11    13 1   
    24    12    14 1   
    25    13    14 1   
    26    13    15 1   
    27    13    26 1   
    28    14    15 1   
    29    14    27 1   
@<TRIPOS>SUBSTRUCTURE
     1 STO         1 TEMP              0 ****  ****    0 ROOT
